/*--------------------------------*- C++ -*----------------------------------*\
| =========                 |                                                 |
| \\      /  F ield         | OpenFOAM: The Open Source CFD Toolbox           |
|  \\    /   O peration     | Version:  v2112                                 |
|   \\  /    A nd           | Website:  www.openfoam.com                      |
|    \\/     M anipulation  |                                                 |
\*---------------------------------------------------------------------------*/
FoamFile
{
    version     2.0;
    format      ascii;
    class       volVectorField;
    object      U; // velocity
}
// * * * * * * * * * * * * * * * * * * * * * * * * * * * * * * * * * * * * * //

Umean 1.668;    // water velocity/model ship speed (set according to Froude Number)
mUmean -1.668;  // minus U

dimensions      [0 1 -1 0 0 0 0]; // [m/s]

internalField   uniform ($mUmean 0 0); // x-direction

boundaryField
{
    #includeEtc "caseDicts/setConstraintTypes"

    inlet
    {
        type            fixedValue;
        value           $internalField;
    }

    outlet
    {
        type            outletPhaseMeanVelocity;
        alpha           alpha.water;
        Umean           $Umean;
        value           $internalField;
    }

    atmosphere
    {
        type            pressureInletOutletVelocity;
        value           uniform (0 0 0);
    }

    hull
    {
        type            movingWallVelocity;
        value           uniform (0 0 0);
    }
}


// ************************************************************************* //
