/*--------------------------------*- C++ -*----------------------------------*\
| =========                 |                                                 |
| \\      /  F ield         | OpenFOAM: The Open Source CFD Toolbox           |
|  \\    /   O peration     | Version:  v2112                                 |
|   \\  /    A nd           | Website:  www.openfoam.com                      |
|    \\/     M anipulation  |                                                 |
\*---------------------------------------------------------------------------*/
FoamFile
{
    version     2.0;
    format      ascii;
    class       volScalarField;
    object      k; // turbulent kinetic energy
}
// * * * * * * * * * * * * * * * * * * * * * * * * * * * * * * * * * * * * * //

dimensions      [0 2 -2 0 0 0 0]; // [m^2/s^2]

internalField   uniform 0.00015; // initial value

boundaryField
{
    #includeEtc "caseDicts/setConstraintTypes"

    inlet
    {
        type            fixedValue;
        value           $internalField;
    }

    outlet
    {
       type            inletOutlet;
       inletValue      $internalField;
       value           $internalField;
    }

    atmosphere
    {
        type            inletOutlet;
        inletValue      $internalField;
        value           $internalField;
    }

    hull
    {
        type            kqRWallFunction; // For high Re, zero gradient condition, 
                                         // provides Neumann boundary (the only Neumann boundary of wall functions)
        value           $internalField;
    }
}


// ************************************************************************* //
